13
Pd13 https://doi.org/10.1039/C7CP02240A
Pd -0.008555 2.520731 -1.636606
Pd -0.077801 -0.107651 -1.608645
Pd 0.117852 -2.601635 -0.857952
Pd 2.271849 1.12673 -1.550322
Pd 1.985295 -0.935082 0.245211
Pd -1.776164 1.309123 -0.088184
Pd -2.293322 -1.287242 -0.775859
Pd 0.852695 1.524273 0.640381
Pd -0.960052 1.218216 2.535406
Pd -3.026446 -0.24952 1.612098
Pd 1.382039 -0.065583 2.668097
Pd -0.543422 -1.002817 1.142188
Pd 2.07603 -1.449544 -2.325816
