12
Pd12 https://doi.org/10.1039/C7CP02240A
Pd -0.628892 -0.267045 -1.599033
Pd 2.091446 0.129763 -1.742571
Pd 0.836621 1.513734 0.177846
Pd -1.056346 -2.505221 -0.189533
Pd -0.344146 -2.059825 2.348654
Pd 1.006024 -2.309369 -1.879404
Pd 1.23735 -1.130855 0.4619
Pd 0.343962 2.059863 -2.34859
Pd -1.737451 1.989306 -0.672272
Pd -1.006091 2.309386 1.879314
Pd 0.703267 0.386302 2.604627
Pd -1.445743 -0.116039 0.959064
