12
Ag12 https://doi.org/10.1021/JP404493W
Ag 2.92099 -1.815754 -0.011252
Ag -2.09157 -2.100565 0.027884
Ag 0.425859 -2.032091 1.429367
Ag -3.891492 -0.003057 -0.009968
Ag 1.805186 0.337091 1.453956
Ag 0.40723 -2.048794 -1.433705
Ag 1.752869 0.339274 -1.462594
Ag -1.201315 0.254723 1.426446
Ag 3.231811 2.188853 -0.022585
Ag 0.339542 2.279037 0.023231
Ag -2.477937 2.363407 -0.008202
Ag -1.221174 0.237876 -1.412577
