13
Ni13 https://doi.org/10.1039/C7CP02240A
Ni -0.018028 2.243177 -1.441013
Ni -0.033411 -0.076644 -1.434487
Ni 0.093212 -2.264138 -0.782891
Ni 2.000468 0.965777 -1.424566
Ni 1.741407 -0.821066 0.196768
Ni -1.567519 1.133126 -0.065669
Ni -1.998118 -1.154138 -0.651474
Ni 0.728742 1.307238 0.548306
Ni -0.888061 1.0296 2.261732
Ni -2.717665 -0.173648 1.456726
Ni 1.238868 -0.052298 2.360257
Ni -0.489778 -0.861139 1.040966
Ni 1.909882 -1.275846 -2.064656
