13
Ag13 https://doi.org/10.1021/JP404493W
Ag -1.196778 0.243685 1.171356
Ag -2.884029 2.290275 0.27212
Ag -2.081931 -2.467099 1.163354
Ag -1.485419 0.88462 -1.749954
Ag -3.48714 -0.501674 -0.301335
Ag -4.0E-6 2.621302 -1.0E-6
Ag 1.196774 0.24368 -1.171346
Ag 0.794877 -1.760464 1.205829
Ag -0.79487 -1.760477 -1.205829
Ag 3.487137 -0.501662 0.301332
Ag 1.485418 0.884633 1.749952
Ag 2.081945 -2.4671 -1.163346
Ag 2.88402 2.290281 -0.272132
